Version 4
SHEET 1 2712 680
WIRE 160 -112 160 -160
WIRE 144 -96 80 -96
WIRE 336 -80 208 -80
WIRE 368 -80 336 -80
WIRE 544 -80 448 -80
WIRE 640 -80 544 -80
WIRE 864 -80 720 -80
WIRE 2528 -80 2528 -128
WIRE 144 -64 -384 -64
WIRE 1760 -64 1664 -64
WIRE 2384 -64 1760 -64
WIRE 2512 -64 2384 -64
WIRE 2704 -48 2576 -48
WIRE 2512 -32 2464 -32
WIRE 2464 -16 2464 -32
WIRE 160 0 160 -48
WIRE 192 0 192 -48
WIRE 1264 0 1024 0
WIRE 1264 32 1264 0
WIRE 1664 32 1664 -64
WIRE 1760 32 1760 -64
WIRE 2528 32 2528 -16
WIRE 2560 32 2560 -16
WIRE 80 64 80 -96
WIRE 224 64 80 64
WIRE 336 64 336 -80
WIRE 336 64 304 64
WIRE 80 80 80 64
WIRE 1104 112 1104 64
WIRE -384 128 -384 -64
WIRE 640 128 640 80
WIRE 1024 128 1024 0
WIRE 1072 128 1024 128
WIRE 2384 128 2384 -64
WIRE 2512 128 2384 128
WIRE 2704 128 2704 -48
WIRE 2704 128 2592 128
WIRE 544 144 544 -80
WIRE 608 144 544 144
WIRE 1264 144 1264 112
WIRE 1264 144 1136 144
WIRE 864 160 864 -80
WIRE 864 160 672 160
WIRE 1072 160 864 160
WIRE -112 176 -128 176
WIRE -16 176 -32 176
WIRE 80 176 80 160
WIRE 80 176 48 176
WIRE 608 176 544 176
WIRE 1664 176 1664 96
WIRE 1760 176 1760 112
WIRE -128 192 -128 176
WIRE 80 192 80 176
WIRE 1024 192 1024 128
WIRE 1104 224 1104 176
WIRE 640 240 640 192
WIRE 80 288 80 272
WIRE 224 288 80 288
WIRE 336 288 304 288
WIRE 1024 288 1024 272
WIRE 1904 352 1664 352
WIRE 1664 384 1664 352
WIRE 160 400 160 352
WIRE 80 416 80 288
WIRE 144 416 80 416
WIRE 336 432 336 288
WIRE 336 432 208 432
WIRE 368 432 336 432
WIRE 544 432 544 176
WIRE 544 432 448 432
WIRE 640 432 544 432
WIRE 864 432 720 432
WIRE -384 448 -384 208
WIRE 144 448 -384 448
WIRE 864 448 864 432
WIRE 1824 464 1824 416
WIRE 1904 480 1904 352
WIRE 1904 480 1856 480
WIRE -384 496 -384 448
WIRE 1664 496 1664 464
WIRE 1792 496 1664 496
WIRE 160 512 160 464
WIRE 192 512 192 464
WIRE 2704 512 2704 128
WIRE 2704 512 1856 512
WIRE 864 544 864 528
WIRE 1904 544 1904 480
WIRE 1824 576 1824 528
WIRE -384 592 -384 576
WIRE 1904 640 1904 624
FLAG -112 528 VCC
FLAG -16 528 VEE
FLAG -112 608 0
FLAG -16 608 0
FLAG 640 80 VCC
FLAG 640 240 VEE
FLAG 1760 176 0
FLAG 160 -160 VCC
FLAG 160 0 VEE
FLAG 192 0 VCC
FLAG 160 352 VCC
FLAG 160 512 VEE
FLAG 192 512 VCC
FLAG -128 192 0
FLAG -384 592 0
FLAG 864 544 0
FLAG 1104 64 VCC
FLAG 1104 224 VEE
FLAG 1024 288 0
FLAG 2528 -128 VCC
FLAG 2528 32 VEE
FLAG 2560 32 VCC
FLAG 2464 -16 0
FLAG 1664 176 0
FLAG 1824 416 VCC
FLAG 1824 576 VEE
FLAG 1904 640 0
SYMBOL voltage -112 512 R0
WINDOW 123 0 0 Left 0
WINDOW 39 0 0 Left 0
SYMATTR InstName V1
SYMATTR Value 2.5
SYMBOL voltage -16 512 R0
WINDOW 123 0 0 Left 0
WINDOW 39 0 0 Left 0
SYMATTR InstName V2
SYMATTR Value -2.5
SYMBOL voltage -384 112 R0
WINDOW 123 0 0 Left 0
WINDOW 39 0 0 Left 0
SYMATTR InstName V3
SYMATTR Value SINE(0 10m 10k)
SYMBOL res 464 416 R90
WINDOW 0 0 56 VBottom 2
WINDOW 3 32 56 VTop 2
SYMATTR InstName R3
SYMATTR Value 750
SYMBOL bi 1760 32 R0
SYMATTR InstName B1
SYMATTR Value I={I(B2)*TXSENSITIVITY*LOSS*RXSENSITIVITY}
SYMBOL OpAmps\\LTC6253-7 176 -80 R0
SYMATTR InstName U1
SYMBOL OpAmps\\LTC6253-7 176 432 R0
SYMATTR InstName U2
SYMBOL res 320 48 R90
WINDOW 0 0 56 VBottom 2
WINDOW 3 32 56 VTop 2
SYMATTR InstName R1
SYMATTR Value 1k2
SYMBOL res 320 272 R90
WINDOW 0 0 56 VBottom 2
WINDOW 3 32 56 VTop 2
SYMATTR InstName R2
SYMATTR Value 1k2
SYMBOL res 64 64 R0
SYMATTR InstName R6
SYMATTR Value 30.1
SYMBOL res 64 176 R0
SYMATTR InstName R7
SYMATTR Value 30.1
SYMBOL cap 48 160 R90
WINDOW 0 0 32 VBottom 2
WINDOW 3 32 32 VTop 2
SYMATTR InstName C1
SYMATTR Value 15p
SYMBOL res -16 160 R90
WINDOW 0 0 56 VBottom 2
WINDOW 3 32 56 VTop 2
SYMATTR InstName R8
SYMATTR Value 200
SYMBOL voltage -384 480 R0
WINDOW 123 0 0 Left 0
WINDOW 39 0 0 Left 0
SYMATTR InstName V4
SYMATTR Value 0
SYMBOL res 464 -96 R90
WINDOW 0 0 56 VBottom 2
WINDOW 3 32 56 VTop 2
SYMATTR InstName R9
SYMATTR Value 750
SYMBOL res 736 -96 R90
WINDOW 0 0 56 VBottom 2
WINDOW 3 32 56 VTop 2
SYMATTR InstName R10
SYMATTR Value 750
SYMBOL res 736 416 R90
WINDOW 0 0 56 VBottom 2
WINDOW 3 32 56 VTop 2
SYMATTR InstName R11
SYMATTR Value 750
SYMBOL voltage 864 432 R0
WINDOW 123 0 0 Left 0
WINDOW 39 0 0 Left 0
SYMATTR InstName V5
SYMATTR Value 1.25
SYMBOL res 1008 176 R0
SYMATTR InstName R5
SYMATTR Value 50
SYMBOL OpAmps\\LTC6253 1104 144 R0
SYMATTR InstName U5
SYMBOL bv 1264 16 R0
SYMATTR InstName B2
SYMATTR Value V=1.9+I(R5)*50
SYMBOL OpAmps\\LTC6253-7 2544 -48 R0
SYMATTR InstName U4
SYMBOL res 2608 112 R90
WINDOW 0 0 56 VBottom 2
WINDOW 3 32 56 VTop 2
SYMATTR InstName R4
SYMATTR Value 2k
SYMBOL cap 1648 32 R0
SYMATTR InstName C2
SYMATTR Value 3p
SYMBOL res 1920 528 M0
SYMATTR InstName R12
SYMATTR Value 50
SYMBOL OpAmps\\LTC6253 1824 496 M0
SYMATTR InstName U6
SYMBOL bv 1664 368 M0
SYMATTR InstName B3
SYMATTR Value V=1.9+I(R5)*50
SYMBOL OpAmps\\LTC6253 640 160 R0
SYMATTR InstName U3
TEXT 96 592 Left 2 !.tran 1m
TEXT 1304 80 Left 2 ;to model Vf changing with If
TEXT 1648 232 Left 2 !.param TXSENSITIVITY=0.0398
TEXT 1648 264 Left 2 !.param LOSS={X}
TEXT 1648 296 Left 2 !.param RXSENSITIVITY=0.4
TEXT 1992 296 Left 2 ;A/W
TEXT 1864 264 Left 2 ;*100%
TEXT 2032 232 Left 2 ;W/A
TEXT 2120 584 Left 2 !.step param X list 0.7 0.5 0.3
LINE Normal 1648 32 1344 32 2
LINE Normal 1632 16 1648 32 2
LINE Normal 1648 32 1632 48 2
